! PM3 Opt Def2-SVP
%maxcore 1000

%pal nprocs 1
end

* xyz 1 1
 C         -3.5296660332        2.8370964788       -1.8585136948
 N         -3.2833294220        1.8099049001       -0.8354961496
 C         -3.4350088194        2.2877098265        0.5604652554
 C         -3.1870677256        1.1489264882        1.5466776605
 C         -1.9556589570        0.2767475038        1.1771777858
 C         -2.3815584686       -0.9700500217        0.4164327519
 C         -2.0728070265       -1.1658445087       -0.9242645453
 C         -2.4854320694       -2.3165876690       -1.5767487525
 C         -3.2142611630       -3.2774456031       -0.8992043539
 C         -3.5180483267       -3.0923481771        0.4402882116
 C         -3.1016414046       -1.9480007801        1.0952130708
 O         -1.0590103349        1.0974914140        0.4316421069
 C          0.2717200918        0.7426008403        0.3490564003
 C          0.7847935661       -0.4820701905        0.7525279692
 C          2.1384329903       -0.7298843676        0.6117603592
 C          2.9721522944        0.2348402282        0.0652155456
 C          2.4578428679        1.4561287934       -0.3477096033
 C          1.1087070774        1.7073015623       -0.2055935746
 C          4.4377109773       -0.0798779543       -0.0732202686
 F          4.9964610458       -0.3732432898        1.1113209576
 F          4.6394194455       -1.1486554131       -0.8629471748
 F          5.1406949465        0.9278363981       -0.5980948830
 H         -2.8495909280        3.6737574081       -1.7118187753
 H         -4.5530265656        3.2018206112       -1.7883092472
 H         -3.3712183149        2.4248007790       -2.8527058224
 H         -2.2966444233        1.4682019132       -0.8691869024
 H         -4.4354304963        2.6993837511        0.7030558374
 H         -2.7020828020        3.0812836597        0.7148927080
 H         -4.0604758039        0.4984872864        1.6048788720
 H         -3.0413517493        1.5942504324        2.5301367079
 H         -1.4690467023       -0.0346027533        2.1096499614
 H         -1.4689960446       -0.4483572884       -1.4650608485
 H         -2.2270275156       -2.4607547854       -2.6141562317
 H         -3.5322318930       -4.1733124602       -1.4078321112
 H         -4.0711302223       -3.8450457016        0.9792867264
 H         -3.3234352170       -1.8156524696        2.1439632496
 H          0.1512504179       -1.2518006063        1.1620267184
 H          2.5462275489       -1.6781941796        0.9248996017
 H          3.1078403396        2.2042637945       -0.7726152585
 H          0.6943080664        2.6547219946       -0.5126397818
 H         -3.8954983580        0.9996875350       -0.9882751358
*


