! PM3 Opt Def2-SVP
%maxcore 1000

%pal nprocs 1
end

* xyz 1 1
 C         -1.8798523450        3.2690655250       -0.4509490189
 N         -2.5722098966        1.9846510318       -0.6523924805
 C         -3.3177324156        1.4951050214        0.5422258984
 C         -2.3849186208        0.7091466040        1.4577043407
 C         -1.7776879673       -0.5093696165        0.7262654252
 C         -2.8671751390       -1.3875168555        0.1403980300
 C         -3.6423619520       -2.1499113888        1.0071051316
 C         -4.6566334991       -2.9507310601        0.5151720487
 C         -4.9033314848       -3.0023955164       -0.8472291930
 C         -4.1280317334       -2.2537485717       -1.7147473838
 C         -3.1161484772       -1.4448831799       -1.2242621174
 O         -0.9139217186       -0.0570450856       -0.3229000971
 C          0.4440610374        0.0719590822       -0.1110631837
 C          1.0561066431        0.0836741814        1.1342059589
 C          2.4288588925        0.2447143893        1.2182447671
 C          3.1836430883        0.4013963647        0.0668294542
 C          2.5711776147        0.4012875451       -1.1805271399
 C          1.2050295348        0.2369079679       -1.2668825872
 C          4.6694115257        0.6241170212        0.1680519908
 F          4.9553896527        1.9394888367        0.2346879880
 F          5.1991695681        0.0628688136        1.2595313643
 F          5.3315982122        0.1430665981       -0.8888743366
 H         -1.1796440962        3.1892963889        0.3773430379
 H         -2.5987061427        4.0564483834       -0.2302625344
 H         -1.3254427516        3.5400827359       -1.3468933457
 H         -1.8568510553        1.2284983163       -0.8431161770
 H         -4.1198796384        0.8358697623        0.2040231664
 H         -3.7582135565        2.3439163942        1.0681832764
 H         -2.9570116297        0.3573970857        2.3148947138
 H         -1.5835941890        1.3493730073        1.8306655078
 H         -1.2047739281       -1.1110944255        1.4389277842
 H         -3.4428069707       -2.1265315290        2.0681834360
 H         -5.2483419657       -3.5422216949        1.1957391442
 H         -5.6891735037       -3.6330892034       -1.2312820759
 H         -4.3044376692       -2.3008258925       -2.7781586231
 H         -2.4980149468       -0.8890117168       -1.9139376861
 H          0.4944511163       -0.0342743402        2.0470243855
 H          2.9097389762        0.2456486843        2.1837736313
 H          3.1630194648        0.5177450616       -2.0745153179
 H          0.7149258877        0.2163570619       -2.2273954540
 H         -3.2040487024        2.0632026490       -1.4531821865
*


