! DLPNO-CCSD(T) def2-TZVP def2-TZVP/C VeryTightSCF
%maxcore 3400

%pal nprocs 8 
end

*xyz 1 1
O             3.159227         2.646742         0.064462
N            -1.362237        -0.309427         0.013243
N             2.814965         0.444835        -0.059726
C             1.329762         0.641541        -0.003864
C             0.660359         0.134753        -1.275703
C             0.733445        -0.027086         1.228867
C            -0.845939         0.365883        -1.161236
C            -0.775725         0.212168         1.232177
C            -2.816762        -0.418829         0.049745
C            -3.599613         0.900138         0.162670
C             3.330485        -0.908013        -0.159467
C             3.653451         1.434518        -0.023886
C            -5.082554         0.629255         0.195425
C             5.143288         1.235339        -0.080256
C             3.606450        -1.615388         1.001125
C             3.538881        -1.462618        -1.413427
C             5.953587         2.526002        -0.004024
C            -5.735645         0.401269         1.404259
C            -5.815086         0.545929        -0.986215
C             4.101807        -2.908672         0.900365
C             4.034241        -2.756672        -1.504154
C             4.314338        -3.477690        -0.349620
C            -7.090831         0.098514         1.433760
C            -7.170420         0.243432        -0.962217
C            -7.811969         0.017916         0.249167
H             1.174166         1.716486         0.070314
H             0.842967        -0.935049        -1.395842
H             1.056249         0.659807        -2.150215
H             1.181380         0.382736         2.139141
H             0.918249        -1.102832         1.199888
H            -1.043893         1.452736        -1.144502
H            -1.342145        -0.038692        -2.046085
H            -1.221892        -0.303084         2.085588
H            -0.969288         1.291744         1.365271
H            -3.135315        -0.945002        -0.855060
H            -3.082243        -1.062643         0.893600
H            -3.363829         1.548522        -0.686144
H            -3.304869         1.432886         1.071321
H             5.361971         0.687903        -1.000611
H             5.410533         0.555366         0.732304
H             3.433372        -1.161822         1.970451
H             3.313524        -0.891261        -2.306789
H             5.791572         3.060655         0.936914
H             5.748218         3.194021        -0.846263
H             7.015517         2.286181        -0.048567
H            -5.178765         0.469131         2.334637
H            -5.320758         0.727753        -1.936436
H             4.318808        -3.471905         1.800200
H             4.198490        -3.201396        -2.478461
H             4.698741        -4.488146        -0.424303
H            -7.585933        -0.070431         2.383767
H            -7.727991         0.188159        -1.890780
H            -8.870673        -0.214656         0.270285
H             3.868666         3.304824         0.084572
*

