! DLPNO-CCSD(T) def2-TZVP def2-TZVP/C VeryTightSCF
%maxcore 3400

%pal nprocs 8 
end

*xyz 1 1
O             2.320567         1.841102         1.219315
N            -1.957398        -0.485124        -1.097046
N             2.122526         0.005523        -0.035027
C             0.642814         0.213218        -0.164734
C             0.245059         0.424682        -1.620430
C            -0.131228        -0.948084         0.445927
C            -1.266741         0.640923        -1.689842
C            -1.625190        -0.656301         0.307479
C            -3.369430        -0.584357        -1.447366
C            -4.257166         0.642677        -1.174459
C             2.718383        -1.145788        -0.686258
C             2.886112         0.809185         0.638699
C            -4.292166         1.059548         0.275265
C             4.369510         0.595588         0.769566
C             2.815245        -2.342109         0.008672
C             3.180468        -1.024217        -1.988174
C             5.087533         1.656355         1.598676
C            -3.757676         2.277884         0.683924
C            -4.828167         0.210958         1.243113
C             3.388215        -3.440929        -0.617634
C             3.752004        -2.128519        -2.606307
C             3.854963        -3.333891        -1.922292
C            -3.732209         2.632822         2.028069
C            -4.803881         0.557954         2.586307
C            -4.247290         1.768769         2.985019
H             0.417460         1.117874         0.397526
H             0.501199        -0.457796        -2.210458
H             0.767600         1.290913        -2.037670
H             0.129508        -1.066059         1.502080
H             0.102275        -1.875300        -0.081771
H            -1.517737         1.595602        -1.195593
H            -1.568382         0.729683        -2.736322
H            -2.197184        -1.497052         0.703528
H            -1.879359         0.222260         0.919755
H            -3.427576        -0.814738        -2.516578
H            -3.772824        -1.451484        -0.917841
H            -5.267770         0.393835        -1.514402
H            -3.925740         1.484226        -1.789074
H             4.779815         0.544255        -0.241979
H             4.517455        -0.400641         1.193716
H             2.443713        -2.413814         1.024575
H             3.091205        -0.079386        -2.512249
H             4.733447         1.681898         2.633878
H             5.002514         2.653903         1.156771
H             6.150859         1.421848         1.638264
H            -3.358872         2.961195        -0.060302
H            -5.270375        -0.734259         0.942050
H             3.466941        -4.381494        -0.085456
H             4.114409        -2.046314        -3.624127
H             4.299748        -4.194151        -2.408645
H            -3.318593         3.590291         2.326490
H            -5.228147        -0.113265         3.325120
H            -4.233679         2.043473         4.033812
H             2.978307         2.369841         1.692935
*

