! DLPNO-CCSD(T) def2-TZVP def2-TZVP/C VeryTightSCF
%maxcore 3400

%pal nprocs 8 
end

*xyz 1 1
O             0.005592        -1.627839         0.772355
N            -1.888154         1.957665        -0.396632
N             1.598696        -0.306093        -0.232570
C             0.688236         0.840330        -0.545378
C            -0.398834         0.439184        -1.547066
C             0.187804         1.514390         0.735841
C            -1.407111         1.575472        -1.704798
C            -0.848748         2.580986         0.387575
C            -3.212340         2.552160        -0.347595
C            -4.301397         1.488487        -0.569069
C             2.983718        -0.129694        -0.629219
C             1.229045        -1.397152         0.378588
C            -3.999122         0.241636         0.225670
C             2.173589        -2.497980         0.739033
C             3.378460        -0.535796        -1.895038
C             3.862685         0.490076         0.244805
C             2.587701        -2.380773         2.214267
C            -3.637422        -0.941058        -0.412847
C            -3.996025         0.270468         1.619091
C             4.694356        -0.327663        -2.286453
C             5.176751         0.694910        -0.157386
C             5.591083         0.285474        -1.418792
C            -3.260256        -2.063935         0.317768
C            -3.616925        -0.843954         2.355133
C            -3.239008        -2.015502         1.706338
H             1.339550         1.556046        -1.049171
H            -0.954345        -0.446327        -1.231060
H             0.072429         0.198079        -2.503968
H             1.040721         1.951428         1.262699
H            -0.288619         0.806728         1.419159
H            -0.945672         2.425990        -2.237480
H            -2.238676         1.226421        -2.317401
H            -1.275345         2.978273         1.309580
H            -0.365706         3.422366        -0.140982
H            -3.336807         2.979304         0.649874
H            -3.338261         3.375719        -1.066786
H            -4.382208         1.235723        -1.629244
H            -5.265988         1.913916        -0.278849
H             3.046079        -2.472946         0.090266
H             1.638221        -3.434995         0.574862
H             2.668574        -1.015174        -2.560158
H             3.525477         0.808546         1.224765
H             3.219274        -3.229206         2.477267
H             1.714627        -2.387467         2.868393
H             3.156897        -1.466716         2.391447
H            -3.658020        -0.988647        -1.497940
H            -4.292393         1.177660         2.137199
H             5.018548        -0.645498        -3.270323
H             5.875980         1.174921         0.517001
H             6.617045         0.446250        -1.728337
H            -2.996714        -2.981454        -0.198212
H            -3.627995        -0.804052         3.438982
H            -2.953625        -2.890234         2.279946
H            -0.651139        -0.939889         0.574144
*

