#opt

Fluoxetine

1 1
 C         -4.1661533225        2.5450492887       -1.1891322510
 N         -3.7799279454        1.5570988213       -0.1676576469
 C         -2.5092143698        1.8864093378        0.5284478418
 C         -2.0695525123        0.7656296013        1.4639366727
 C         -1.5884863357       -0.4853757365        0.6808995273
 C         -2.7641907025       -1.2069218165        0.0495229871
 C         -3.0538263893       -1.0573609363       -1.3093311101
 C         -4.1519783301       -1.7031794099       -1.8635200537
 C         -4.9741753839       -2.4816414997       -1.0675765175
 C         -4.6886521826       -2.6316965578        0.2811139894
 C         -3.5914992598       -1.9976431128        0.8384347544
 O         -0.6899327273       -0.1012769107       -0.3388102868
 C          0.6526183504        0.0042855203       -0.0852718609
 C          1.2473536219       -0.0896692631        1.1664518527
 C          2.6186607072        0.0551009152        1.2875588788
 C          3.3967134760        0.2977836049        0.1669866432
 C          2.8060070486        0.3971548475       -1.0871097511
 C          1.4417640258        0.2484131146       -1.2095259424
 C          4.8786604611        0.5027250971        0.3209839067
 F          5.1683561110        1.7914307489        0.5904567593
 F          5.3942017815       -0.2175624342        1.3252808115
 F          5.5617194263        0.1833000188       -0.7837549968
 H         -4.2893569164        3.5285708842       -0.7388366877
 H         -5.1023583211        2.2518187306       -1.6591604135
 H         -3.3926407645        2.6040354740       -1.9521011930
 H         -3.6441170423        0.6041921213       -0.6106881840
 H         -2.6400722734        2.8181900356        1.0819280500
 H         -1.7383295321        2.0337655999       -0.2319988524
 H         -2.8716602253        0.4817507512        2.1463769609
 H         -1.2401315659        1.1480665421        2.0598672996
 H         -1.1069890271       -1.1763468340        1.3831684150
 H         -2.3652409677       -0.5164460601       -1.9430603813
 H         -4.3510271082       -1.6069177885       -2.9195877797
 H         -5.8219730925       -2.9888155815       -1.4994292714
 H         -5.3136472365       -3.2575212493        0.8981613045
 H         -3.3628357582       -2.1366063865        1.8844521238
 H          0.6727930147       -0.2780694725        2.0593527224
 H          3.0818637796       -0.0231648799        2.2587019124
 H          3.4140250976        0.5812223638       -1.9586149001
 H          0.9658443436        0.3112499520       -2.1747950498
 H         -4.5289863230        1.4677082522        0.5273340270
  

