#opt

Fluoxetine

1 1
 C         -3.1475959774        3.6986058324       -1.3456340451
 N         -2.6217441981        3.2830966488       -0.0339610241
 C         -3.5904482287        2.5154879207        0.7991915200
 C         -3.5813285223        1.0441229116        0.3983633580
 C         -2.2366750004        0.3520880625        0.6796366070
 C         -2.3448924575       -1.1172727368        0.3352228763
 C         -2.6599301008       -2.0393682853        1.3250646264
 C         -2.7853633199       -3.3799565159        1.0085029497
 C         -2.5922237135       -3.8064706941       -0.2951440054
 C         -2.2784337250       -2.8894863151       -1.2834969075
 C         -2.1604727339       -1.5465860403       -0.9716968815
 O         -1.2548908531        1.0378167482       -0.1133686549
 C          0.0713585027        0.6616771474       -0.0444737046
 C          0.9276284999        1.3568756436       -0.8959720087
 C          2.2774871886        1.0761375827       -0.8995873338
 C          2.7762801864        0.0977797627       -0.0483347934
 C          1.9257561925       -0.5933238115        0.7996989206
 C          0.5697570985       -0.3148451025        0.8043616785
 C          4.2569217343       -0.1736871692       -0.0280495953
 F          4.9025878776        0.7096701858        0.7566106836
 F          4.5528453668       -1.3901604079        0.4396678595
 F          4.8070873113       -0.0728471381       -1.2448138110
 H         -2.3775881664        4.2231961688       -1.9071033033
 H         -4.0023485973        4.3608783530       -1.2186448937
 H         -3.4587696248        2.8258119540       -1.9141883749
 H         -2.2941121143        4.1103171782        0.4715578148
 H         -4.5878791544        2.9419675149        0.6781799236
 H         -3.2980263187        2.6106459113        1.8469522498
 H         -3.8166618149        0.9284669538       -0.6600921090
 H         -4.3522445314        0.5203526922        0.9627038609
 H         -1.9808425645        0.4699539848        1.7430320339
 H         -2.8043611679       -1.7083366916        2.3438667140
 H         -3.0290763884       -4.0914772243        1.7817252293
 H         -2.6842145306       -4.8529565964       -0.5392907944
 H         -2.1258297086       -3.2175685882       -2.2997232177
 H         -1.9096009256       -0.8336135928       -1.7439257121
 H          0.5263225927        2.1058135539       -1.5614833395
 H          2.9422851266        1.6071934225       -1.5623391502
 H          2.3172691203       -1.3549629223        1.4552805894
 H         -0.0771980004       -0.8741421945        1.4587186063
 H         -1.8195460049        2.6073781881       -0.1725597475
  

