#opt

Fluoxetine

1 1
 C         -4.4042778330        1.3444596651       -1.3058817874
 N         -3.2127718329        2.0748714083       -0.8401984207
 C         -3.2501048380        2.4787919711        0.5909255137
 C         -3.0881600346        1.2800366393        1.5212300248
 C         -1.9049384681        0.3572694468        1.1197740773
 C         -2.3856167737       -0.8392064182        0.3137403127
 C         -2.0593306388       -1.0038713829       -1.0272067531
 C         -2.5224931670       -2.1044203424       -1.7300111197
 C         -3.3173876182       -3.0463738923       -1.1016895574
 C         -3.6383756252       -2.8930067155        0.2378663263
 C         -3.1733806206       -1.7978769460        0.9428542949
 O         -0.9740918517        1.1595320850        0.3988767316
 C          0.3447183778        0.7652197281        0.3339690547
 C          0.8071114843       -0.4935236460        0.6899258519
 C          2.1556877417       -0.7835709111        0.5721326491
 C          3.0333560137        0.1743677604        0.0910689878
 C          2.5701244530        1.4334889682       -0.2726387587
 C          1.2284580108        1.7260883472       -0.1529176886
 C          4.5054516965       -0.1195703527       -0.0181597682
 F          5.1945530347        0.4281850770        0.9977066037
 F          4.7745633733       -1.4293435090       -0.0050932867
 F          5.0331846055        0.3774184404       -1.1467950541
 H         -4.5178881662        0.4188474111       -0.7467964877
 H         -4.3036064142        1.0983278462       -2.3606218773
 H         -5.2927292694        1.9582888954       -1.1696434527
 H         -3.0832528468        2.9085375089       -1.4216126495
 H         -4.1914463238        2.9902665105        0.7975013192
 H         -2.4253173660        3.1728709544        0.7588894588
 H         -4.0006300877        0.6859147446        1.5584145943
 H         -2.9170222489        1.6779336429        2.5210975393
 H         -1.4340240244       -0.0103564618        2.0400320884
 H         -1.4055697982       -0.3010133328       -1.5285887657
 H         -2.2509930156       -2.2264329009       -2.7668428316
 H         -3.6736000982       -3.9045341303       -1.6485157862
 H         -4.2431607765       -3.6326592675        0.7380026245
 H         -3.4095272087       -1.6905623105        1.9913545570
 H          0.1374506689       -1.2596216401        1.0458993769
 H          2.5188804341       -1.7609492155        0.8479042615
 H          3.2581707734        2.1750840072       -0.6466858427
 H          0.8535225792        2.7002592116       -0.4245095464
 H         -2.3601183660        1.4838331670       -0.9274847164
  

