#opt

Fluoxetine

1 1
 C         -3.2833938508        2.0473676895       -2.3117992261
 N         -2.4844779550        1.9922080765       -1.0776869032
 C         -3.2797274980        1.7427632067        0.1546456920
 C         -2.3703963478        1.2054621158        1.2544304132
 C         -1.7380214539       -0.1444683594        0.8444015333
 C         -2.8101120505       -1.1471590023        0.4601081153
 C         -3.6049537887       -1.6903344003        1.4630950303
 C         -4.6043051202       -2.5930851771        1.1490245943
 C         -4.8169802363       -2.9652914605       -0.1685187667
 C         -4.0219425543       -2.4353931228       -1.1692250650
 C         -3.0240535695       -1.5264539341       -0.8582720022
 O         -0.8532932420        0.0555325033       -0.2637782932
 C          0.5099107982        0.1488207548       -0.0652936817
 C          1.2890952887       -0.0610999857       -1.2007777969
 C          2.6626134878        0.0374201718       -1.1266383095
 C          3.2625872189        0.3459568704        0.0879235449
 C          2.4892797786        0.5632805317        1.2173905153
 C          1.1100226605        0.4695882440        1.1441854250
 C          4.7588511896        0.4953371182        0.1669316816
 F          5.2403350113        0.1912565656        1.3768371863
 F          5.3977124942       -0.2739925466       -0.7202281696
 F          5.1311837900        1.7651429120       -0.0865499132
 H         -3.7889915085        1.0952745871       -2.4615738577
 H         -2.6409269152        2.2448613722       -3.1672878184
 H         -4.0310260002        2.8359336459       -2.2434281521
 H         -1.9534545507        2.8625772281       -0.9711255901
 H         -4.0389122117        0.9933985068       -0.0807902739
 H         -3.7779746856        2.6623721518        0.4660040142
 H         -2.9625636244        1.0566847227        2.1560554611
 H         -1.5832491727        1.9274431824        1.4829482561
 H         -1.1783412394       -0.5527500844        1.6917384497
 H         -3.4323122036       -1.4163485002        2.4932785578
 H         -5.2112112216       -3.0133912724        1.9352247365
 H         -5.5914852076       -3.6750247861       -0.4119881397
 H         -4.1715911027       -2.7330211696       -2.1956260399
 H         -2.3882769111       -1.1435131928       -1.6431536420
 H          0.8069517617       -0.3160010762       -2.1311816862
 H          3.2685601569       -0.1355033476       -2.0018331818
 H          2.9611414355        0.8049127697        2.1568000750
 H          0.5313321829        0.6482950864        2.0364818298
 H         -1.7821964294        1.2037928464       -1.1048652481
  

