! DLPNO-CCSD(T) def2-TZVPP def2-TZVPP/C def2/J RIJCOSX VeryTightSCF TightPNO CPCM(Water) LED
%maxcore 7500

%pal nprocs 8 
end

*xyz 1 1
C(1)            1.071118         0.468445         1.925353
H(1)            0.225278         0.393511         2.614462
H(1)            1.836005         1.099540         2.405389
C(1)            1.630394         1.122854        -0.349680
H(1)            2.413014         1.845268        -0.068745
H(1)            1.183018         1.471327        -1.282092
N(1)            0.589360         1.095291         0.691105
N(1)            0.205416        -1.546727        -0.270741
C(1)            0.072528         2.436772         0.956871
H(1)           -0.562619         2.378185         1.843579
H(1)            0.886731         3.140409         1.186259
C(1)           -0.725857         2.963593        -0.224970
H(1)           -1.119958         3.960585         0.014767
H(1)           -0.073540         3.082737        -1.089570
C(1)           -0.665299        -2.582938        -0.823608
H(1)           -0.836110        -2.346262        -1.876134
H(1)           -0.183164        -3.571313        -0.786817
C(1)           -1.989612        -2.644464        -0.079050
H(1)           -2.630726        -3.410976        -0.535333
H(1)           -1.820973        -2.949019         0.953407
C(1)            1.670780        -0.911868         1.666134
H(1)            1.995243        -1.314035         2.629264
C(1)            0.666266        -1.905504         1.080703
H(1)           -0.200577        -1.964410         1.740930
H(1)            1.132148        -2.903370         1.058027
C(1)            1.327852        -1.273558        -1.173001
H(1)            0.915335        -0.920810        -2.122417
H(1)            1.891254        -2.197791        -1.378297
C(1)            2.286816        -0.237237        -0.591220
H(1)            3.084643        -0.082806        -1.322136
Li(2)           -1.052864         0.093767        -0.088128
C(1)           -2.958591         2.240779         0.299834
H(1)           -3.787988         1.611569        -0.018218
H(1)           -2.690986         1.966307         1.321177
H(1)           -3.297009         3.286361         0.296425
C(1)           -3.638965        -1.306037         1.035238
H(1)           -4.382794        -2.110133         0.942469
H(1)           -3.115352        -1.420860         1.985398
H(1)           -4.163612        -0.351367         1.038971
C(1)            2.856504        -0.768097         0.719148
N(1)           -2.671209        -1.340480        -0.063572
N(1)           -1.817417         2.051007        -0.600414
C(1)           -3.360070        -1.122362        -1.338813
H(1)           -4.071356        -1.933189        -1.549474
H(1)           -3.910266        -0.183785        -1.304680
H(1)           -2.641963        -1.069695        -2.158351
C(1)           -2.226318         2.317418        -1.981327
H(1)           -1.387647         2.128062        -2.652848
H(1)           -3.050049         1.660291        -2.257828
H(1)           -2.554567         3.358492        -2.110877
H(1)            3.594644        -0.074416         1.130579
H(1)            3.346745        -1.732597         0.561992
*

