! wB97X-D3BJ Opt Freq def2-TZVPP def2/J RIJCOSX ExtremeSCF
! PAL8 VeryTightOpt defgrid3

%maxcore 4096

%geom
  MaxIter 400
  # Step qn
  # MaxStep 0.1
  Calc_Hess true
  # Recalc_Hess 2
end

%method
  Z_tol 1e-12
end

%chelpg
  grid 0.1
  rmax 3.0
end

%elprop
  Dipole true
  Quadrupole true
  Polar 1
end

* xyz 1 1
 O         +2.0168576677    +1.0398032155    -0.0000000000
 N         +0.8662273152    +3.2009351964    +0.6875749499
 N         +0.0000000000    +0.0000000000    +0.0000000000
 C         -0.8705823366    +1.1812283917    -0.1056097083
 C         -1.1337093873    +1.8459571433    +1.2545339460
 C         -0.4036140655    +2.2242528600    -1.1424675196
 C         +0.0525371510    +2.6493141576    +1.7926396271
 C         +0.0343051724    +3.5310714763    -0.4799102315
 C         +1.8136797174    +4.2565570139    +1.1048556293
 C         +1.2074218480    +5.6510667446    +1.2929900863
 C         -0.7358372242    -1.2270547905    +0.1215791618
 C         +1.3392307250    +0.0000000000    +0.0000000000
 C         +0.2187382736    +5.7524817713    +2.4262474340
 C         +2.0510842993    -1.3253107921    -0.0654476041
 C         -0.8565091129    -1.8389564449    +1.3618164725
 C         -1.3643798201    -1.7669476614    -0.9914941503
 C         +2.1572971317    -1.7817913075    -1.5237686185
 C         +0.6454280009    +5.6062240414    +3.7424999197
 C         -1.1246432072    +6.0093633778    +2.1803377564
 C         -1.5921662248    -3.0054555804    +1.4805823619
 C         -2.0970313719    -2.9345089150    -0.8644764970
 C         -2.2095683948    -3.5543060964    +0.3688966165
 C         -0.2560310470    +5.6962298524    +4.7877239286
 C         -2.0274204649    +6.1018719766    +3.2263345827
 C         -1.5956947139    +5.9394701179    +4.5313617556
 H         -1.8269278653    +0.7671636171    -0.4396529872
 H         -1.4126678196    +1.0844057500    +1.9828983450
 H         -1.9971154176    +2.5006814113    +1.1308364214
 H         -1.2168435078    +2.4397536509    -1.8347074116
 H         +0.4191419077    +1.8148603610    -1.7294256829
 H         -0.3143633817    +3.4620803406    +2.4216551264
 H         +0.7078294467    +2.0158736909    +2.3953156164
 H         +0.6247838674    +4.1180078039    -1.1847385840
 H         -0.8264416663    +4.1231413916    -0.1638519045
 H         +2.2785166101    +3.9262425006    +2.0356199204
 H         +2.5902147046    +4.3119806236    +0.3380628942
 H         +0.7430773817    +5.9889228708    +0.3660088955
 H         +2.0431770238    +6.3238680163    +1.4988787808
 H         +1.5414810280    -2.0856914132    +0.5229651843
 H         +3.0547598099    -1.1722758189    +0.3336188380
 H         -0.3677683470    -1.4093460939    +2.2243908637
 H         -1.2782162991    -1.2758576235    -1.9498460096
 H         +2.7515354965    -2.6891937397    -1.5757054667
 H         +2.6431865704    -1.0189044962    -2.1274157055
 H         +1.1746858811    -1.9912978423    -1.9389619350
 H         +1.6918991509    +5.4341895231    +3.9495219172
 H         -1.4670262845    +6.1582410593    +1.1652091000
 H         -1.6832124701    -3.4831294753    +2.4434186982
 H         -2.5789670930    -3.3588823436    -1.7310974423
 H         -2.7804515341    -4.4641495686    +0.4644160647
 H         +0.0889708691    +5.5869669373    +5.8042119184
 H         -3.0663684440    +6.3094572272    +3.0208949752
 H         -2.2975327367    +6.0158954394    +5.3468287712
 H         +1.4516477893    +2.3259335015    +0.3473484273
*
