! wB97X-D3BJ Opt Freq def2-TZVPP def2/J RIJCOSX ExtremeSCF
! PAL8 VeryTightOpt defgrid3

%maxcore 4096

%geom
  MaxIter 400
  # Step qn
  # MaxStep 0.1
  Calc_Hess true
  # Recalc_Hess 2
end

%method
  Z_tol 1e-12
end

%chelpg
  grid 0.1
  rmax 3.0
end

%elprop
  Dipole true
  Quadrupole true
  Polar 1
end

* xyz 1 1
 O         +2.0118122384    +1.0418869173    +0.0000000000
 N         +0.8070844772    +3.1143435889    -0.8738904851
 N         +0.0000000000    +0.0000000000    +0.0000000000
 C         -0.8753374455    +1.1692764348    +0.1688143790
 C         -0.3296917627    +2.2573024688    +1.1137085562
 C         -1.2803114069    +1.7923940863    -1.1740486302
 C         +0.0981458394    +3.5145795467    +0.3533854342
 C         -0.1324266503    +2.5382723776    -1.8581941109
 C         +1.6478648189    +4.1909232534    -1.4312838264
 C         +2.4203821298    +3.7618329686    -2.6812919400
 C         -0.7266507720    -1.2172033640    -0.2192688613
 C         +1.3428145275    +0.0000000000    -0.0000000000
 C         +3.2264230190    +2.5040583848    -2.4711307405
 C         +2.0392533746    -1.3368360126    +0.0195396868
 C         -1.4356008526    -1.8042498819    +0.8201430569
 C         -0.7471646228    -1.7797997457    -1.4882353419
 C         +3.3087597735    -1.2709010940    +0.8657469338
 C         +2.9498283953    +1.3552467487    -3.2004066645
 C         +4.2718128678    +2.4827013556    -1.5559938090
 C         -2.1587589394    -2.9607822904    +0.5865873944
 C         -1.4744259782    -2.9356688391    -1.7137133333
 C         -2.1803836883    -3.5251919892    -0.6783598907
 C         +3.6961215747    +0.2044180140    -3.0133981855
 C         +5.0200418480    +1.3353645952    -1.3703609751
 C         +4.7316992823    +0.1917226011    -2.0961811335
 H         -1.7852331957    +0.7521725851    +0.6121743199
 H         +0.5127295727    +1.8638666982    +1.6817586063
 H         -1.1024020408    +2.5335372551    +1.8304227807
 H         -2.1111531733    +2.4711520962    -0.9785279017
 H         -1.6510892978    +1.0133916975    -1.8409002246
 H         -0.7611393000    +4.1361533925    +0.0892729451
 H         +0.7683464246    +4.1076875734    +0.9769846764
 H         +0.4334941505    +1.8570843031    -2.4948922572
 H         -0.5403585210    +3.3407325340    -2.4785293874
 H         +1.0124874535    +5.0509691153    -1.6649356841
 H         +2.3554969190    +4.4820038929    -0.6528500085
 H         +3.0956583557    +4.5818293879    -2.9355957118
 H         +1.7415425762    +3.6312796820    -3.5249335254
 H         +2.3101771625    -1.5771406472    -1.0121450220
 H         +1.3735847651    -2.1160402142    +0.3886633733
 H         -1.4068607254    -1.3657938458    +1.8066900132
 H         -0.1896488110    -1.3170678439    -2.2894711967
 H         +3.9447997838    -0.4594481988    +0.5236271159
 H         +3.8539769756    -2.2063149383    +0.7865493771
 H         +3.0614946102    -1.1023591636    +1.9109996374
 H         +2.1641353853    +1.3638825763    -3.9449530533
 H         +4.5145347417    +3.3739636043    -0.9962020040
 H         -2.7034967426    -3.4217292264    +1.3953632280
 H         -1.4900878136    -3.3735850918    -2.6993759953
 H         -2.7460747249    -4.4258278530    -0.8565254493
 H         +3.4751155305    -0.6783921095    -3.5953191418
 H         +5.8348779388    +1.3356108929    -0.6625688117
 H         +5.3185641395    -0.7029073546    -1.9549768513
 H         +1.4449148192    +2.2795252107    -0.5395863483
*
