! wB97X-D3BJ Opt Freq def2-TZVPP def2/J RIJCOSX ExtremeSCF
! PAL8 VeryTightOpt defgrid3

%maxcore 4096

%geom
  MaxIter 400
  # Step qn
  # MaxStep 0.1
  Calc_Hess true
  # Recalc_Hess 2
end

%method
  Z_tol 1e-12
end

%chelpg
  grid 0.1
  rmax 3.0
end

%elprop
  Dipole true
  Quadrupole true
  Polar 1
end

* xyz 1 1
 O         +2.0178755691    +1.0362265217    +0.0000000000
 N         +0.8517867362    +3.2276422762    -0.6113826332
 N         +0.0000000000    +0.0000000000    +0.0000000000
 C         -0.8787419934    +1.1734009223    +0.1059741588
 C         -0.4402942072    +2.2021243628    +1.1705123645
 C         -1.1245840191    +1.8598749212    -1.2475306691
 C         -0.0132361869    +3.5267311065    +0.5417315279
 C         +0.0470941404    +2.7170356471    -1.7397292508
 C         +1.7657920230    +4.3239558078    -0.9967442276
 C         +3.0875375223    +4.2450898892    -0.2278006567
 C         -0.7169702713    -1.2404228205    -0.0981621138
 C         +1.3414055361    +0.0000000000    -0.0000000000
 C         +2.9289798544    +4.4619814014    +1.2546032464
 C         +2.0166769977    -1.3488378541    +0.0140656166
 C         -1.2689725989    -1.8068930670    +1.0423610159
 C         -0.8888662544    -1.8429421640    -1.3360190816
 C         +3.5209170043    -1.2240634013    +0.2256848895
 C         +2.6987298705    +5.7374980580    +1.7580798784
 C         +3.0038747458    +3.3901357024    +2.1362762148
 C         -1.9848055444    -2.9870109390    +0.9415337727
 C         -1.6078153500    -3.0223115886    -1.4285582572
 C         -2.1538700000    -3.5944386767    -0.2918226607
 C         +2.5372011246    +5.9361447300    +3.1179513761
 C         +2.8434659056    +3.5894931482    +3.4970003829
 C         +2.6066127584    +4.8617208769    +3.9895115276
 H         -1.8383942541    +0.7458319758    +0.4130587698
 H         +0.3862846246    +1.7995601324    +1.7570409937
 H         -1.2625340416    +2.3902436807    +1.8595089458
 H         -2.0133813632    +2.4807389621    -1.1306419696
 H         -1.3602927316    +1.1049385809    -1.9976839775
 H         -0.8731688973    +4.1129035384    +0.2081373159
 H         +0.5475637794    +4.1141666839    +1.2689690097
 H         +0.7103548508    +2.1340518016    -2.3827679552
 H         -0.3402944180    +3.5590817814    -2.3195239077
 H         +1.9761450248    +4.2345818929    -2.0642690399
 H         +1.2680614046    +5.2809029977    -0.8216025137
 H         +3.7521027101    +5.0088608667    -0.6353590000
 H         +3.5436287180    +3.2702608778    -0.4077055463
 H         +1.8160437916    -1.8480614330    -0.9368104270
 H         +1.5690914519    -1.9613605416    +0.7997852968
 H         -1.1319919322    -1.3267531952    +2.0000856921
 H         -0.4599458623    -1.3938076536    -2.2199551603
 H         +3.7358980469    -0.7529607860    +1.1813210098
 H         +3.9699528640    -0.6224723313    -0.5601641392
 H         +3.9773773015    -2.2089964286    +0.2142185801
 H         +2.6578886443    +6.5801803891    +1.0827261674
 H         +3.1987305652    +2.3990440987    +1.7529936152
 H         -2.4097615271    -3.4310308340    +1.8278742487
 H         -1.7422837487    -3.4915729494    -2.3904280013
 H         -2.7126291688    -4.5136814554    -0.3672214177
 H         +2.3657170051    +6.9311695873    +3.4984752980
 H         +2.9118500424    +2.7521616509    +4.1749443766
 H         +2.4872753685    +5.0179320982    +5.0502202979
 H         +1.4468973651    +2.3588034878    -0.2904515869
*
