#opt

test_29

1 1
 C         -3.9014345709        2.3884430170       -1.6971437168
 N         -2.9380245649        1.6920684121       -0.8308914338
 C         -3.3373841001        1.6420535461        0.5975365151
 C         -2.2282397885        1.0234157322        1.4466662683
 C         -1.6460975321       -0.2560486574        0.7998396874
 C         -2.7529204292       -1.1396849785        0.2522311441
 C         -3.6761652049       -1.6961426435        1.1307055461
 C         -4.7134219252       -2.4752867771        0.6506445102
 C         -4.8427261751       -2.7054523169       -0.7103059842
 C         -3.9193453265       -2.1680607489       -1.5889485502
 C         -2.8777535915       -1.3851260886       -1.1127851716
 O         -0.7746752671        0.1210115155       -0.2617332870
 C          0.5836250834        0.1807026098       -0.0537227452
 C          1.3586708178        0.2084191819       -1.2117246943
 C          2.7323812630        0.2951763059       -1.1293557785
 C          3.3406549768        0.3600875354        0.1175041756
 C          2.5737280688        0.3374413817        1.2722473892
 C          1.1947501976        0.2559334200        1.1912249205
 C          4.8396887483        0.4239883026        0.2348622712
 F          5.4269284790        0.8515130876       -0.8883207836
 F          5.2315648680        1.2470197759        1.2187571886
 F          5.3660811655       -0.7808909876        0.5132911134
 H         -4.8689715426        1.8931387765       -1.6419518096
 H         -3.5588501880        2.3758019132       -2.7295483490
 H         -4.0182119383        3.4228426645       -1.3786075067
 H         -2.0081078621        2.1240813932       -0.8999155032
 H         -4.2467708475        1.0413334949        0.6676881128
 H         -3.5587809237        2.6534884096        0.9436827645
 H         -2.6342856521        0.7931365828        2.4300958317
 H         -1.4143535629        1.7389625228        1.5807720637
 H         -1.0934826708       -0.8251630169        1.5547144378
 H         -3.5731689646       -1.5335723409        2.1928232435
 H         -5.4172921746       -2.9113605874        1.3416495706
 H         -5.6491812196       -3.3176919837       -1.0808559594
 H         -3.9967694888       -2.3658841750       -2.6467543010
 H         -2.1163340458       -1.0399291637       -1.8002947453
 H          0.8707603322        0.1490237330       -2.1715866673
 H          3.3307956295        0.3111195875       -2.0263499962
 H          3.0518474038        0.3932638039        2.2376573414
 H          0.6238895337        0.2545446133        2.1062178835
 H         -2.8232800228        0.7005996679       -1.1396447284

