#opt

test_24

1 1
 C         -4.5453111934        1.9608461236       -1.9325683953
 N         -4.1849983494        1.2992358822       -0.6671509990
 C         -3.4895020978        2.1936773245        0.2946567760
 C         -3.0085737868        1.4350222655        1.5259815831
 C         -1.8220422057        0.4942143554        1.2170907790
 C         -2.2698646133       -0.7116252536        0.4100623362
 C         -2.8984293088       -1.7767837673        1.0442602599
 C         -3.3363332566       -2.8652337342        0.3095474205
 C         -3.1541540063       -2.9015757425       -1.0648023624
 C         -2.5245250058       -1.8486247970       -1.7055098143
 C         -2.0908193996       -0.7494004759       -0.9754932655
 O         -0.8652037777        1.2836155503        0.5383157767
 C          0.4300221246        0.8415833666        0.4513649606
 C          0.8578791889       -0.4287898146        0.8143103313
 C          2.1906581958       -0.7706375622        0.6654613677
 C          3.0928889941        0.1493493449        0.1554643287
 C          2.6662513350        1.4191489039       -0.2157840020
 C          1.3401544905        1.7625872729       -0.0656072084
 C          4.5304489075       -0.2446217233       -0.0443024587
 F          4.9370387423       -1.1700695046        0.8338132752
 F          4.7294581581       -0.7698702435       -1.2695949278
 F          5.3682190898        0.7935164409        0.0630806237
 H         -5.2033967043        2.8071584402       -1.7434272332
 H         -5.0521480994        1.2598514561       -2.5922870312
 H         -3.6453909729        2.3214816088       -2.4265206374
 H         -3.5343667273        0.4860653001       -0.8504914541
 H         -4.1704259790        2.9959818856        0.5843715734
 H         -2.6227291696        2.6280773692       -0.2068538455
 H         -3.8179700377        0.8613172231        1.9793625078
 H         -2.6701757344        2.1743659962        2.2520693327
 H         -1.4132595902        0.1481858029        2.1767881573
 H         -3.0233196235       -1.7622467758        2.1167829766
 H         -3.8075248330       -3.6942719876        0.8131933431
 H         -3.4833444114       -3.7584374100       -1.6302591982
 H         -2.3538287559       -1.8830987078       -2.7702252834
 H         -1.5299033192        0.0351253857       -1.4672043654
 H          0.1725540991       -1.1653083142        1.2021969926
 H          2.5263143709       -1.7556737433        0.9493871384
 H          3.3720619239        2.1326904116       -0.6106437985
 H          0.9902794509        2.7450417069       -0.3388934006
 H         -5.0289186421        0.9223937827       -0.2220857360

