#opt

test_28

1 1
 C         -3.9218052817        2.5834613003       -1.2400037693
 N         -2.9511560916        1.7507588576       -0.5134711716
 C         -3.3402692693        1.4532775451        0.8874460638
 C         -2.2221125032        0.7046087684        1.6109766741
 C         -1.6359285085       -0.4391830749        0.7490388914
 C         -2.7416974847       -1.2200259604        0.0611029102
 C         -2.8717727751       -1.2255867214       -1.3254268520
 C         -3.9149810028       -1.9153762911       -1.9259751145
 C         -4.8348787218       -2.5974762885       -1.1501113748
 C         -4.6997203539       -2.6070879823        0.2295849960
 C         -3.6607835639       -1.9218839781        0.8334031391
 O         -0.7736628507        0.1221737070       -0.2355086497
 C          0.5835123047        0.1749992394       -0.0192673756
 C          1.1981275010        0.0442743833        1.2190387458
 C          2.5754969284        0.1444364711        1.3141081799
 C          3.3361268139        0.3902838456        0.1822455770
 C          2.7238768090        0.5288611977       -1.0575045248
 C          1.3529148772        0.4237737846       -1.1548354962
 C          4.8352266271        0.4733879861        0.2864232277
 F          5.4136841999       -0.7208577414        0.0731570663
 F          5.3593619189        1.3185095048       -0.6112615357
 F          5.2408242260        0.8858607036        1.4941677612
 H         -3.5903749001        2.7433865654       -2.2637118221
 H         -4.0321443236        3.5500450067       -0.7515421539
 H         -4.8900948036        2.0868694851       -1.2578076157
 H         -2.0224952853        2.1909727052       -0.5129523450
 H         -4.2460753469        0.8438003804        0.8585197951
 H         -3.5645091738        2.3886603218        1.4037912214
 H         -2.6207112727        0.3044237950        2.5415684745
 H         -1.4120215993        1.3920039153        1.8631865161
 H         -1.0754243388       -1.1272420807        1.3906399895
 H         -2.1129707953       -0.7659066825       -1.9454189104
 H         -3.9965852423       -1.9270229181       -3.0017482065
 H         -5.6430484579       -3.1364629077       -1.6179325546
 H         -5.4006789401       -3.1570243161        0.8372964869
 H         -3.5535658876       -1.9459140006        1.9072002433
 H          0.6316069288       -0.1335392076        2.1193280610
 H          3.0547678711        0.0408362980        2.2748813442
 H          3.3190010111        0.7173993818       -1.9369445693
 H          0.8625209245        0.5210637999       -2.1103238376
 H         -2.8366519988        0.8275841446       -0.9896845930

