#opt

Fluoxetine

1 1
 C         -3.1082153316        3.5245669192       -1.4913591851
 N         -3.1385070904        2.2463085689       -0.7647054871
 C         -3.4145431354        2.3724922034        0.6885987352
 C         -3.3950845977        0.9974543467        1.3439008668
 C         -2.0688224215        0.2068426353        1.1252085461
 C         -2.3584916616       -1.0768236279        0.3689895824
 C         -2.1554733917       -1.1809247453       -1.0005946641
 C         -2.4576646843       -2.3588160465       -1.6631739191
 C         -2.9752352017       -3.4355738788       -0.9653050547
 C         -3.1822067288       -3.3361516635        0.4011561018
 C         -2.8739055827       -2.1635670579        1.0661251540
 O         -1.1490198188        1.0556183347        0.4369014638
 C          0.1792571899        0.6913796136        0.3605385152
 C          1.0190758661        1.6438203201       -0.2132655633
 C          2.3672773188        1.3879695398       -0.3449640706
 C          2.8814762868        0.1758272738        0.0990949600
 C          2.0464111733       -0.7750954636        0.6634035685
 C          0.6919904654       -0.5212115163        0.7964067413
 C          4.3487883226       -0.1083475805       -0.0807206252
 F          5.1022208665        0.9814532598        0.1169711031
 F          4.7977396054       -1.0539823079        0.7503222720
 F          4.6144624329       -0.5335339890       -1.3300501601
 H         -2.8685814401        3.3579445297       -2.5394298119
 H         -2.3529491945        4.1762783638       -1.0568829942
 H         -4.0758877782        4.0192296814       -1.4261842054
 H         -2.2041112105        1.7728309592       -0.7825033705
 H         -4.3865295273        2.8457724672        0.8381933050
 H         -2.6398105721        3.0084935809        1.1200663411
 H         -4.2231937088        0.3963819491        0.9624092804
 H         -3.5629246402        1.1368190176        2.4108271833
 H         -1.6426161135       -0.0426080378        2.1043200659
 H         -1.7263902172       -0.3585271077       -1.5584212535
 H         -2.2842774313       -2.4322799278       -2.7254918618
 H         -3.2099735224       -4.3519667482       -1.4828410486
 H         -3.5780626973       -4.1747354775        0.9517866261
 H         -3.0277539376       -2.0884883877        2.1324801297
 H          0.6091438633        2.5854225376       -0.5445304822
 H          3.0212730750        2.1254573240       -0.7827282784
 H          2.4498652018       -1.7158721034        1.0030517567
 H          0.0578111968       -1.2789820942        1.2257513240
 H         -3.8268586755        1.6141467395       -1.1879946789
  

