#opt

Fluoxetine

1 1
 C         -2.7543762167        4.4152881920        1.2187405360
 N         -2.4259835931        3.3053998984        0.3109054558
 C         -3.6048325406        2.5648097521       -0.2112696568
 C         -3.1688068201        1.2093610157       -0.7621734074
 C         -2.5881837375        0.3165272144        0.3470591905
 C         -2.3103856040       -1.1207627623       -0.0389517544
 C         -1.7991628761       -1.9573018365        0.9490554289
 C         -1.5049826445       -3.2782604196        0.6699660900
 C         -1.7294164413       -3.7835537889       -0.5995960568
 C         -2.2479840731       -2.9605863987       -1.5834171851
 C         -2.5345688004       -1.6334231446       -1.3098123347
 O         -1.4339749152        0.9542677440        0.9514653030
 C         -0.1451364323        0.6015905945        0.5840817995
 C          0.8158130122        0.7395045564        1.5804958153
 C          2.1405766400        0.4598924850        1.3106855538
 C          2.5027200889        0.0381083692        0.0393651345
 C          1.5466191348       -0.0944257435       -0.9575055741
 C          0.2211321086        0.1958357793       -0.6920358579
 C          3.9356230805       -0.2774777971       -0.2997082556
 F          4.3957531648        0.5313792849       -1.2709562058
 F          4.7610963781       -0.1422753092        0.7405349679
 F          4.0739666762       -1.5318417125       -0.7542184510
 H         -3.3931215316        5.1401417906        0.7164094238
 H         -1.8443991283        4.9139215390        1.5451711374
 H         -3.2765416473        4.0328192250        2.0932522454
 H         -1.8488838944        2.5563402896        0.7944036341
 H         -4.1019242297        3.1590910501       -0.9804209873
 H         -4.3020381290        2.4186945266        0.6166086363
 H         -2.4427470935        1.3491781416       -1.5647978671
 H         -4.0456167333        0.7134774452       -1.1766504186
 H         -3.3108304107        0.3007857057        1.1767303154
 H         -1.6295641451       -1.5668436532        1.9421548954
 H         -1.1067717347       -3.9129158747        1.4457796666
 H         -1.5043647824       -4.8149116978       -0.8200033473
 H         -2.4301808405       -3.3486299789       -2.5734284349
 H         -2.9345612965       -1.0158141923       -2.0992431987
 H          0.5107796955        1.0562737163        2.5653072521
 H          2.8855182446        0.5591875256        2.0840389474
 H          1.8390850681       -0.4214874850       -1.9429739752
 H         -0.5072703267        0.0794995188       -1.4766032871
 H         -1.8694670463        3.6572627752       -0.4745005017
  

