#opt

Fluoxetine

1 1
 C         -4.5665695142        2.1915678261       -1.6784924851
 N         -4.1934322491        1.3794969296       -0.5080146728
 C         -3.4842985481        2.1481397893        0.5479732287
 C         -2.9940785414        1.2435855627        1.6724042148
 C         -1.8172485215        0.3411199778        1.2378615734
 C         -2.2805618208       -0.7532761550        0.2925774452
 C         -2.1091953445       -0.6226734873       -1.0882961307
 C         -2.5569866593       -1.6203893270       -1.9445969219
 C         -3.1933015550       -2.7382740037       -1.4335974155
 C         -3.3680797188       -2.8688345012       -0.0640133861
 C         -2.9158701557       -1.8825472494        0.7956535142
 O         -0.8605510453        1.2020380600        0.6520880358
 C          0.4338938090        0.7705390755        0.5138184119
 C          0.8569342658       -0.5364735037        0.7173979243
 C          2.1899445200       -0.8607469871        0.5350745017
 C          3.0955523828        0.1112645084        0.1405893994
 C          2.6745280015        1.4196399358       -0.0670897861
 C          1.3482465581        1.7454507049        0.1173275193
 C          4.5476192665       -0.2430423488       -0.0272029098
 F          5.1557070922        0.5144042992       -0.9495489214
 F          5.2349327710       -0.0775390779        1.1174179267
 F          4.7234413721       -1.5197956700       -0.3947463692
 H         -5.0844244009        1.5776043394       -2.4122366771
 H         -3.6713691697        2.6075176604       -2.1361919739
 H         -5.2188535207        3.0100869601       -1.3790538798
 H         -3.5474061143        0.5938400667       -0.7968975401
 H         -4.1590413184        2.9108465179        0.9408026366
 H         -2.6211225243        2.6381733592        0.0937775456
 H         -3.8019626547        0.6234438690        2.0630043214
 H         -2.6424410452        1.8879211500        2.4783803073
 H         -1.4024170563       -0.1229987032        2.1435721927
 H         -1.5447658709        0.2121601382       -1.4836091260
 H         -2.3924070480       -1.5256350905       -3.0066067084
 H         -3.5335984276       -3.5165082210       -2.0975686890
 H         -3.8445311959       -3.7491318025        0.3372936759
 H         -3.0349203331       -1.9984144503        1.8626466570
 H          0.1679541921       -1.3134900154        1.0075793062
 H          2.5211556168       -1.8751738878        0.6925937078
 H          3.3828400180        2.1735257278       -0.3722955498
 H          1.0019975838        2.7551545159       -0.0340466767
 H         -5.0331845670        0.9520989010       -0.1024600664
  

