#opt

Fluoxetine

1 1
 C         -5.2958633318        0.9384345472       -0.6642847295
 N         -3.9558722351        1.4757314417       -0.9591992940
 C         -3.3886704102        2.3459846566        0.1089326105
 C         -2.9639746200        1.5672658388        1.3482369841
 C         -1.7983342103        0.5925689853        1.0692382695
 C         -2.2729740120       -0.6201801898        0.2870019461
 C         -1.9982466227       -0.7483326385       -1.0766457656
 C         -2.4636314902       -1.8509210169       -1.7815891792
 C         -3.2163932985       -2.8181117595       -1.1391694497
 C         -3.4897241678       -2.6946574729        0.2149248981
 C         -3.0222212664       -1.6025720603        0.9250339269
 O         -0.8146974091        1.3407820315        0.3814364321
 C          0.4782271435        0.8828247742        0.3511499380
 C          0.8779552557       -0.3816650408        0.7635521011
 C          2.2107586309       -0.7421195038        0.6696892217
 C          3.1406240850        0.1530527079        0.1647361418
 C          2.7420398072        1.4159821537       -0.2570152722
 C          1.4157698904        1.7782919476       -0.1611430708
 C          4.5785417688       -0.2656824224        0.0267712841
 F          4.9519217867       -1.1375214320        0.9722362504
 F          4.8018203168       -0.8702534134       -1.1569226734
 F          5.4250611276        0.7685485604        0.0898855233
 H         -5.6637970974        0.3692652337       -1.5151672106
 H         -5.9901284049        1.7502294192       -0.4549375043
 H         -5.2500282992        0.2769134568        0.1972547921
 H         -3.9966214490        2.0115231956       -1.8313838741
 H         -4.1317408741        3.0993651359        0.3766319759
 H         -2.5055499006        2.8444362777       -0.2946703898
 H         -3.7962158938        1.0203733722        1.7888082358
 H         -2.6242178812        2.3018521693        2.0788921351
 H         -1.4067416569        0.2570178920        2.0398622921
 H         -1.3471760818       -0.0353710964       -1.5664838908
 H         -2.2214453175       -1.9554668938       -2.8276388547
 H         -3.5710796125       -3.6774199714       -1.6850935363
 H         -4.0566794962       -3.4587129467        0.7226991933
 H         -3.2180136315       -1.5221175930        1.9841517365
 H          0.1708323098       -1.0996049367        1.1473440507
 H          2.5251702699       -1.7222421681        0.9923401251
 H          3.4688528044        2.1099958465       -0.6485005755
 H          1.0871431676        2.7560614417       -0.4746991431
 H         -3.2876839744        0.6686111241       -1.0898855592
  

