24
Coordinates from ORCA-job ACE-H_mixed_1_1_a2d_NEB-TS_MEP E -463.492732267341
  C       2.100053      0.063632     -0.294287
  C       1.911348     -1.279926     -0.895984
  H       1.015333     -1.337930     -1.509523
  H       2.796533     -1.567503     -1.463413
  H       1.812949     -1.977627     -0.058288
  O       1.165180      0.885136     -0.198751
  C       3.432265      0.463231      0.217490
  H       3.873932     -0.357073      0.786213
  H       4.083626      0.633525     -0.646377
  H       3.373351      1.371302      0.812238
  H       0.184844      0.549588     -0.565498
  O      -0.994512      0.144750     -1.057729
  C      -2.060783      0.481647     -0.536543
  C      -3.347115     -0.008798     -1.109421
  H      -3.840715      0.834494     -1.602761
  H      -4.015009     -0.341858     -0.312756
  H      -3.176294     -0.801461     -1.833749
  H      -2.955950      2.047941      0.612266
  C      -2.106964      1.366325      0.667446
  H      -2.259761      0.719975      1.537094
  H      -1.179777      1.919606      0.802664
  O       0.121072     -1.103362      1.866241
  H      -0.227334     -1.979749      2.050526
  H       0.293728     -0.725867      2.732903
24
Coordinates from ORCA-job ACE-H_mixed_1_1_a2d_NEB-TS_MEP E -463.492045098832
  C       2.149218      0.061904     -0.289793
  C       1.833097     -1.281483     -0.833997
  H       0.896454     -1.295111     -1.386925
  H       2.658380     -1.657120     -1.437508
  H       1.729810     -1.935120      0.039177
  O       1.262648      0.917527     -0.078310
  C       3.549929      0.421715      0.029498
  H       4.049666     -0.416608      0.518611
  H       4.068535      0.582857     -0.922840
  H       3.603730      1.327975      0.628254
  H       0.264895      0.628039     -0.367612
  O      -0.935314      0.260053     -0.929277
  C      -2.062277      0.492477     -0.496527
  C      -3.251627      0.030017     -1.271184
  H      -3.712678      0.907472     -1.734761
  H      -3.997780     -0.408085     -0.606917
  H      -2.958548     -0.672071     -2.048088
  H      -3.087240      1.962945      0.658405
  C      -2.289975      1.229003      0.783780
  H      -2.635212      0.506065      1.528143
  H      -1.381895      1.705259      1.145751
  O       0.143073     -0.990919      1.993147
  H      -0.249253     -1.826858      2.258155
  H       0.352362     -0.549931      2.820818
24
Coordinates from ORCA-job ACE-H_mixed_1_1_a2d_NEB-TS_MEP E -463.490962032218
  C       2.180033      0.057800     -0.289414
  C       1.783963     -1.282488     -0.783723
  H       0.822673     -1.264554     -1.293078
  H       2.563549     -1.712294     -1.410626
  H       1.687287     -1.905175      0.113162
  O       1.334737      0.938810     -0.013682
  C       3.609641      0.389320     -0.097026
  H       4.134333     -0.457677      0.348527
  H       4.041324      0.533441     -1.094773
  H       3.737353      1.297971      0.486825
  H       0.329154      0.680817     -0.236522
  O      -0.906927      0.342585     -0.832779
  C      -2.067712      0.500028     -0.467378
  C      -3.178273      0.067048     -1.367543
  H      -3.626500      0.965347     -1.801343
  H      -3.960911     -0.440616     -0.803858
  H      -2.802669     -0.563746     -2.169439
  H      -3.182721      1.891510      0.692163
  C      -2.421748      1.123903      0.844540
  H      -2.874432      0.356532      1.478657
  H      -1.549946      1.538039      1.344715
  O       0.192286     -0.900304      2.084925
  H      -0.292470     -1.682299      2.360516
  H       0.447975     -0.473997      2.907155
24
Coordinates from ORCA-job ACE-H_mixed_1_1_a2d_NEB-TS_MEP E -463.489797655752
  C       2.209656      0.048670     -0.286294
  C       1.760019     -1.287136     -0.741317
  H       0.781657     -1.244003     -1.215969
  H       2.502993     -1.750542     -1.388228
  H       1.672052     -1.891304      0.169449
  O       1.395285      0.943430      0.044377
  C       3.651447      0.367321     -0.203736
  H       4.201536     -0.481071      0.207576
  H       4.003688      0.496195     -1.234620
  H       3.833301      1.280865      0.357585
  H       0.389581      0.701292     -0.112513
  O      -0.889799      0.386425     -0.734435
  C      -2.077452      0.498704     -0.435776
  C      -3.116411      0.102298     -1.432467
  H      -3.554760      1.018406     -1.836735
  H      -3.922411     -0.455295     -0.956406
  H      -2.677277     -0.467544     -2.247520
  H      -3.264010      1.829728      0.716129
  C      -2.530197      1.038227      0.883498
  H      -3.051023      0.244214      1.426871
  H      -1.696466      1.403266      1.478059
  O       0.225510     -0.812139      2.152988
  H      -0.375398     -1.519532      2.399427
  H       0.528477     -0.450474      2.990057
24
Coordinates from ORCA-job ACE-H_mixed_1_1_a2d_NEB-TS_MEP E -463.488613747986
  C       2.238167      0.038363     -0.283422
  C       1.757492     -1.294911     -0.711476
  H       0.768446     -1.234984     -1.162263
  H       2.475281     -1.778000     -1.371971
  H       1.674960     -1.888481      0.206808
  O       1.445888      0.934915      0.095196
  C       3.681758      0.356846     -0.289760
  H       4.256153     -0.487946      0.095362
  H       3.969644      0.473857     -1.341880
  H       3.898824      1.275888      0.249182
  H       0.444161      0.694616      0.000470
  O      -0.884531      0.390620     -0.633683
  C      -2.084369      0.489812     -0.402209
  C      -3.067596      0.128722     -1.468968
  H      -3.496731      1.057846     -1.851373
  H      -3.890314     -0.458449     -1.062858
  H      -2.583352     -0.397725     -2.287481
  H      -3.338772      1.782213      0.725464
  C      -2.616256      0.983771      0.907964
  H      -3.169873      0.174732      1.394299
  H      -1.816720      1.327479      1.559724
  O       0.239497     -0.732724      2.194920
  H      -0.474440     -1.348535      2.375945
  H       0.572684     -0.487925      3.062009
24
Coordinates from ORCA-job ACE-H_mixed_1_1_a2d_NEB-TS_MEP E -463.487358262246
  C       2.269056      0.027105     -0.281156
  C       1.770861     -1.302630     -0.697835
  H       0.776386     -1.228350     -1.135564
  H       2.473257     -1.796623     -1.366551
  H       1.685868     -1.892331      0.222683
  O       1.491909      0.914294      0.151757
  C       3.707055      0.357212     -0.361392
  H       4.304143     -0.480330      0.005456
  H       3.945589      0.462865     -1.426874
  H       3.944115      1.282788      0.157197
  H       0.499291      0.666856      0.114956
  O      -0.880901      0.371151     -0.531826
  C      -2.092815      0.480120     -0.364076
  C      -3.027166      0.140424     -1.480661
  H      -3.448100      1.074979     -1.858101
  H      -3.862950     -0.459772     -1.122292
  H      -2.510243     -0.365492     -2.292057
  H      -3.406107      1.756144      0.719197
  C      -2.684626      0.962604      0.925099
  H      -3.251233      0.146558      1.384890
  H      -1.914397      1.309573      1.609881
  O       0.236290     -0.685467      2.210280
  H      -0.580297     -1.179747      2.309451
  H       0.555014     -0.561931      3.107537
24
Coordinates from ORCA-job ACE-H_mixed_1_1_a2d_NEB-TS_MEP E -463.486119279837
  C       2.298026      0.015746     -0.272853
  C       1.788335     -1.308072     -0.692995
  H       0.792228     -1.217289     -1.125587
  H       2.481670     -1.804913     -1.368719
  H       1.694135     -1.902887      0.223197
  O       1.536107      0.884678      0.222837
  C       3.725985      0.363623     -0.419159
  H       4.344510     -0.464857     -0.065925
  H       3.923375      0.456970     -1.493946
  H       3.974918      1.296125      0.080856
  H       0.555747      0.623562      0.242530
  O      -0.884462      0.341493     -0.440820
  C      -2.095133      0.471881     -0.330935
  C      -2.997611      0.142963     -1.480053
  H      -3.411592      1.077842     -1.864029
  H      -3.843102     -0.459708     -1.148272
  H      -2.459222     -0.359723     -2.279276
  H      -3.461011      1.747315      0.700797
  C      -2.737210      0.963864      0.933617
  H      -3.307999      0.145076      1.383569
  H      -1.991592      1.324761      1.638481
  O       0.227041     -0.667556      2.204938
  H      -0.651647     -1.052604      2.227807
  H       0.498504     -0.618290      3.123939
24
Coordinates from ORCA-job ACE-H_mixed_1_1_a2d_NEB-TS_MEP E -463.484898942937
  C       2.326563      0.005999     -0.258649
  C       1.802078     -1.307915     -0.689316
  H       0.805125     -1.194305     -1.116684
  H       2.484958     -1.804654     -1.375219
  H       1.696443     -1.914137      0.217871
  O       1.583911      0.853112      0.303942
  C       3.741970      0.371825     -0.464771
  H       4.377532     -0.448488     -0.120853
  H       3.907047      0.451693     -1.545675
  H       4.000712      1.310044      0.019277
  H       0.621771      0.571534      0.384806
  O      -0.891854      0.312764     -0.384369
  C      -2.102375      0.464365     -0.314571
  C      -2.987286      0.143375     -1.481190
  H      -3.397443      1.077816     -1.870270
  H      -3.838807     -0.458248     -1.160880
  H      -2.440192     -0.361581     -2.272910
  H      -3.497629      1.744399      0.681673
  C      -2.772357      0.968227      0.932248
  H      -3.344559      0.149284      1.380141
  H      -2.041703      1.340392      1.647081
  O       0.216524     -0.670262      2.193859
  H      -0.692519     -0.976892      2.168967
  H       0.442090     -0.628348      3.125491
24
Coordinates from ORCA-job ACE-H_mixed_1_1_a2d_NEB-TS_MEP E -463.483813609928
  C       2.351514     -0.000217     -0.245167
  C       1.810429     -1.303993     -0.684233
  H       0.812774     -1.168145     -1.105727
  H       2.481774     -1.802209     -1.379692
  H       1.694191     -1.919884      0.214800
  O       1.632015      0.824918      0.379809
  C       3.754474      0.380327     -0.500302
  H       4.399367     -0.435101     -0.159930
  H       3.900237      0.447850     -1.584074
  H       4.021312      1.321726     -0.026683
  H       0.693681      0.516029      0.529799
  O      -0.905197      0.288697     -0.360196
  C      -2.113658      0.456486     -0.312693
  C      -2.992635      0.143709     -1.487358
  H      -3.400190      1.079009     -1.877084
  H      -3.847172     -0.457291     -1.172097
  H      -2.442397     -0.362347     -2.276263
  H      -3.519081      1.742833      0.669834
  C      -2.794198      0.968851      0.926656
  H      -3.366696      0.151705      1.377141
  H      -2.067956      1.346535      1.643405
  O       0.210007     -0.680589      2.181616
  H      -0.716137     -0.926489      2.128962
  H       0.403543     -0.612410      3.119478
24
Coordinates from ORCA-job ACE-H_mixed_1_1_a2d_NEB-TS_MEP E -463.483096982502
  C       2.370331     -0.003560     -0.235158
  C       1.816112     -1.299746     -0.679520
  H       0.818144     -1.147629     -1.096494
  H       2.477902     -1.800063     -1.381862
  H       1.692251     -1.921843      0.213753
  O       1.674673      0.799451      0.444668
  C       3.762067      0.389131     -0.528547
  H       4.410207     -0.424496     -0.187302
  H       3.899581      0.446255     -1.613032
  H       4.034894      1.331614     -0.060130
  H       0.764794      0.459251      0.667743
  O      -0.921352      0.264297     -0.349791
  C      -2.127729      0.447236     -0.315603
  C      -3.003938      0.144234     -1.495432
  H      -3.407694      1.082155     -1.882891
  H      -3.860959     -0.456361     -1.184925
  H      -2.451859     -0.361585     -2.283324
  H      -3.533720      1.743003      0.660933
  C      -2.810245      0.968788      0.920372
  H      -3.382906      0.155465      1.377443
  H      -2.082817      1.349800      1.634614
  O       0.206901     -0.679667      2.169123
  H      -0.726727     -0.889537      2.095623
  H       0.382089     -0.596191      3.109739
24
Coordinates from ORCA-job ACE-H_mixed_1_1_a2d_NEB-TS_MEP E -463.482822168161
  C       2.384720     -0.004677     -0.226078
  C       1.820373     -1.295475     -0.674884
  H       0.822389     -1.131606     -1.088706
  H       2.473896     -1.798238     -1.382164
  H       1.691203     -1.920959      0.214747
  O       1.715503      0.773609      0.504400
  C       3.766417      0.397927     -0.553455
  H       4.414345     -0.416168     -0.209791
  H       3.899957      0.445360     -1.637825
  H       4.045185      1.340473     -0.088241
  H       0.836007      0.401907      0.798388
  O      -0.938103      0.243072     -0.345060
  C      -2.142078      0.438377     -0.320156
  C      -3.016604      0.144549     -1.503994
  H      -3.416258      1.085595     -1.888342
  H      -3.875749     -0.456061     -1.198295
  H      -2.462515     -0.360126     -2.291434
  H      -3.545542      1.743228      0.655566
  C      -2.823896      0.967383      0.914752
  H      -3.396691      0.158095      1.378833
  H      -2.093060      1.350287      1.625016
  O       0.206576     -0.672994      2.156684
  H      -0.731851     -0.850355      2.060145
  H       0.365776     -0.583204      3.099894
24
Coordinates from ORCA-job ACE-H_mixed_1_1_a2d_NEB-TS_MEP E -463.483156695616
  C       2.404481     -0.009510     -0.211406
  C       1.827669     -1.291705     -0.668352
  H       0.831354     -1.112347     -1.080954
  H       2.472743     -1.793981     -1.383307
  H       1.690967     -1.925739      0.213207
  O       1.761543      0.744482      0.568799
  C       3.772329      0.405424     -0.576486
  H       4.425854     -0.406539     -0.235442
  H       3.892057      0.442018     -1.661973
  H       4.058193      1.350058     -0.119139
  H       0.913872      0.342228      0.924902
  O      -0.961024      0.214409     -0.334685
  C      -2.161116      0.425573     -0.321814
  C      -3.031625      0.144973     -1.512364
  H      -3.423677      1.091676     -1.890694
  H      -3.895392     -0.454119     -1.215676
  H      -2.475428     -0.357344     -2.300069
  H      -3.561439      1.743355      0.649700
  C      -2.843278      0.964835      0.910105
  H      -3.417410      0.160971      1.381957
  H      -2.107929      1.349725      1.615075
  O       0.215113     -0.668431      2.147958
  H      -0.726733     -0.788711      2.004527
  H       0.338876     -0.571303      3.096129
24
Coordinates from ORCA-job ACE-H_mixed_1_1_a2d_NEB-TS_MEP E -463.483987272605
  C       2.426669     -0.015430     -0.193477
  C       1.838226     -1.288909     -0.662861
  H       0.844113     -1.095664     -1.075789
  H       2.476047     -1.788556     -1.385511
  H       1.693677     -1.932767      0.209365
  O       1.813139      0.711582      0.632668
  C       3.779976      0.413990     -0.595128
  H       4.441928     -0.392738     -0.255566
  H       3.885431      0.440441     -1.681544
  H       4.068171      1.362461     -0.146493
  H       0.992299      0.283288      1.041489
  O      -0.990816      0.168330     -0.317934
  C      -2.184898      0.409116     -0.319853
  C      -3.050258      0.144425     -1.517807
  H      -3.433651      1.096101     -1.892683
  H      -3.919289     -0.451476     -1.228813
  H      -2.492018     -0.358676     -2.303858
  H      -3.577824      1.748045      0.643606
  C      -2.862144      0.968545      0.906759
  H      -3.435517      0.172804      1.392965
  H      -2.120131      1.358584      1.602355
  O       0.221492     -0.658153      2.133365
  H      -0.715030     -0.725855      1.927843
  H       0.300408     -0.569488      3.086900
24
Coordinates from ORCA-job ACE-H_mixed_1_1_a2d_NEB-TS_MEP E -463.485324018995
  C       2.451916     -0.023067     -0.172917
  C       1.847790     -1.285998     -0.655853
  H       0.856489     -1.080737     -1.070851
  H       2.478690     -1.779767     -1.387714
  H       1.695785     -1.942796      0.204880
  O       1.876249      0.677641      0.698676
  C       3.789522      0.419802     -0.612533
  H       4.463543     -0.379556     -0.277530
  H       3.875812      0.438445     -1.700018
  H       4.075820      1.373531     -0.173457
  H       1.069638      0.235710      1.144156
  O      -1.027355      0.104224     -0.285053
  C      -2.213244      0.389227     -0.310574
  C      -3.065588      0.145987     -1.521408
  H      -3.440351      1.101924     -1.894245
  H      -3.940306     -0.447944     -1.244090
  H      -2.502303     -0.358238     -2.303230
  H      -3.598647      1.753497      0.636296
  C      -2.886037      0.973944      0.906278
  H      -3.458135      0.186048      1.406664
  H      -2.139306      1.370060      1.594073
  O       0.230987     -0.646597      2.116431
  H      -0.687924     -0.661799      1.829279
  H       0.246956     -0.563539      3.072737
24
Coordinates from ORCA-job ACE-H_mixed_1_1_a2d_NEB-TS_MEP E -463.487352751537
  C       2.489762     -0.036286     -0.149114
  C       1.858909     -1.282568     -0.645233
  H       0.871548     -1.053044     -1.058934
  H       2.477507     -1.770604     -1.391210
  H       1.696726     -1.954991      0.201481
  O       1.957167      0.641855      0.765849
  C       3.808279      0.417471     -0.634102
  H       4.501908     -0.371016     -0.312992
  H       3.860832      0.430239     -1.723735
  H       4.095794      1.375960     -0.205886
  H       1.151316      0.198287      1.231320
  O      -1.074360      0.043006     -0.233893
  C      -2.247352      0.370986     -0.291125
  C      -3.075036      0.152272     -1.523375
  H      -3.440613      1.111488     -1.896573
  H      -3.956044     -0.441604     -1.265695
  H      -2.499784     -0.351718     -2.296587
  H      -3.635507      1.753572      0.631502
  C      -2.928103      0.973615      0.911675
  H      -3.503737      0.189565      1.413617
  H      -2.184769      1.371466      1.602566
  O       0.246068     -0.641206      2.105915
  H      -0.634395     -0.606038      1.709662
  H       0.163886     -0.520706      3.054868
24
Coordinates from ORCA-job ACE-H_mixed_1_1_a2d_NEB-TS_MEP E -463.490483085409
  C       2.545139     -0.055183     -0.119341
  C       1.879363     -1.278336     -0.631776
  H       0.898235     -1.004223     -1.035572
  H       2.475720     -1.764490     -1.397618
  H       1.698661     -1.966327      0.199100
  O       2.053592      0.593621      0.837500
  C       3.840751      0.413353     -0.652092
  H       4.559336     -0.361833     -0.354787
  H       3.848097      0.425500     -1.743218
  H       4.132533      1.374953     -0.233135
  H       1.239411      0.146361      1.313073
  O      -1.146234     -0.050639     -0.163834
  C      -2.302013      0.342104     -0.261035
  C      -3.091001      0.159878     -1.521575
  H      -3.439652      1.125227     -1.894683
  H      -3.983318     -0.429574     -1.292694
  H      -2.501008     -0.344997     -2.282752
  H      -3.684232      1.754432      0.625198
  C      -2.985280      0.973385      0.921737
  H      -3.565982      0.199260      1.432924
  H      -2.241833      1.374048      1.610939
  O       0.260309     -0.636569      2.083033
  H      -0.551999     -0.543764      1.555446
  H       0.061407     -0.446189      3.005161
24
Coordinates from ORCA-job ACE-H_mixed_1_1_a2d_NEB-TS_MEP E -463.494235041590
  C       2.698986     -0.096953     -0.059324
  C       1.951797     -1.253057     -0.619295
  H       0.993947     -0.890766     -1.013114
  H       2.510386     -1.751793     -1.407337
  H       1.718511     -1.949483      0.190576
  O       2.273264      0.491859      0.963316
  C       3.974045      0.369572     -0.647296
  H       4.711510     -0.417170     -0.443735
  H       3.897229      0.431313     -1.734688
  H       4.311571      1.307644     -0.210299
  H       1.406111      0.061450      1.418229
  O      -1.305480     -0.141484     -0.114610
  C      -2.446296      0.298103     -0.234807
  C      -3.204515      0.169366     -1.519518
  H      -3.492733      1.154559     -1.895105
  H      -4.133787     -0.369515     -1.315029
  H      -2.624527     -0.360951     -2.271007
  H      -3.831050      1.718748      0.650313
  C      -3.133147      0.933329      0.940399
  H      -3.709018      0.156791      1.453249
  H      -2.381675      1.324166      1.624886
  O       0.277486     -0.549443      2.010268
  H      -0.449631     -0.396616      1.359888
  H      -0.012984     -0.239669      2.874043
24
Coordinates from ORCA-job ACE-H_mixed_1_1_a2d_NEB-TS_MEP E -463.496655884887
  C       2.814579     -0.161272     -0.051708
  C       1.852171     -1.172344     -0.568907
  H       0.958370     -0.649672     -0.926099
  H       2.282033     -1.755591     -1.379430
  H       1.533555     -1.829294      0.243595
  O       2.547914      0.519619      0.962425
  C       4.108289      0.070229     -0.729471
  H       4.681774     -0.862037     -0.699387
  H       3.922026      0.280352     -1.786747
  H       4.667728      0.877499     -0.263869
  H       1.578607      0.319874      1.434019
  O      -1.292675      0.195436      0.028017
  C      -2.499590      0.310173     -0.147290
  C      -3.076149      0.308658     -1.530955
  H      -3.456512      1.310367     -1.751748
  H      -3.928022     -0.372045     -1.586666
  H      -2.322049      0.036884     -2.266039
  H      -4.144326      1.282939      0.816909
  C      -3.456468      0.455115      0.999777
  H      -4.063438     -0.452463      1.064411
  H      -2.932837      0.604505      1.942146
  O       0.395885      0.044978      1.999254
  H      -0.370285      0.146927      1.370526
  H       0.199419      0.491164      2.827235
