#opt

Fluoxetine_49

1 1
 C         -4.8223071686        1.7184012035       -0.2663019041
 N         -3.4910267836        1.5810797128       -0.8826517705
 C         -2.3634953131        2.0525213694       -0.0310194159
 C         -2.0608344008        1.1085830284        1.1277119570
 C         -1.5995178747       -0.2870976543        0.6325096557
 C         -2.7793927092       -1.0867016884        0.1096919944
 C         -2.9450763861       -1.3231786742       -1.2565072318
 C         -4.0486193954       -2.0328099282       -1.7125976565
 C         -4.9956106308       -2.4967014927       -0.8167693705
 C         -4.8303504213       -2.2694921756        0.5412948381
 C         -3.7304825439       -1.5680644233        1.0032320727
 O         -0.6499985594       -0.1435879368       -0.4041756950
 C          0.6827613750       -0.0007000579       -0.1174104752
 C          1.5198188942        0.0254916819       -1.2337887010
 C          2.8789103562        0.1875297224       -1.0821512978
 C          3.4167517266        0.3268574892        0.1930285074
 C          2.5926476555        0.2938596019        1.3049050541
 C          1.2250141950        0.1364432619        1.1534245251
 C          4.9042088761        0.4995497885        0.3347922695
 F          5.3712062107        1.4633425674       -0.4764392492
 F          5.2748284918        0.8270149823        1.5775116216
 F          5.5702999366       -0.6216493366        0.0130001473
 H         -5.0015055941        2.7535566048        0.0186887552
 H         -4.8898221271        1.0872740944        0.6164507201
 H         -5.5910692160        1.4071427291       -0.9700703510
 H         -3.4769431236        2.1014789277       -1.7648749132
 H         -2.6009111112        3.0487910791        0.3468609652
 H         -1.4746289113        2.1185943726       -0.6626961024
 H         -2.9173992824        0.9951040550        1.7903297863
 H         -1.2554824634        1.5675466292        1.7026473277
 H         -1.1709364392       -0.8383548196        1.4784005908
 H         -2.1673412842       -1.0293045510       -1.9473228187
 H         -4.1542710853       -2.2338826318       -2.7672880700
 H         -5.8478265377       -3.0541971507       -1.1707792010
 H         -5.5528671689       -2.6527881974        1.2442633028
 H         -3.5957067818       -1.4165156366        2.0640132642
 H          1.0847149477       -0.0906244469       -2.2133192385
 H          3.5257332688        0.2079390699       -1.9450506258
 H          3.0124094700        0.3977994865        2.2930400841
 H          0.6125578097        0.1184001804        2.0407467455
 H         -3.3186068502        0.5589729154       -1.0898974859

