#opt

Fluoxetine_27

1 1
 C         -3.8237838867        2.5651339338       -1.3420476054
 N         -2.8701280207        1.7385466004       -0.5865030900
 C         -3.2530013545        1.5182637596        0.8303307242
 C         -2.1571321658        0.7567524152        1.5743258378
 C         -1.6313132342       -0.4492706418        0.7592317885
 C         -2.7785479206       -1.2125097003        0.1215588513
 C         -3.7157346159       -1.8381748109        0.9364358159
 C         -4.7918577644       -2.5038396028        0.3775181633
 C         -4.9464680400       -2.5503426055       -0.9993608221
 C         -4.0093349091       -1.9446049155       -1.8168890646
 C         -2.9287620983       -1.2748259028       -1.2615209460
 O         -0.7622628128        0.0279802679       -0.2623228893
 C          0.5940426157        0.0923530744       -0.0469939073
 C          1.2117644697       -0.0002891178        1.1932741274
 C          2.5885988047        0.1114665525        1.2821530650
 C          3.3466519513        0.3218371885        0.1412312707
 C          2.7312732186        0.4253382928       -1.1001410838
 C          1.3607597424        0.3093387133       -1.1911427330
 C          4.8374548289        0.4896362736        0.2585109076
 F          5.1641714687        1.7743968422        0.5007020522
 F          5.3560115656       -0.2291390464        1.2610304350
 F          5.4841271410        0.1364032627       -0.8574125606
 H         -3.9047374153        3.5543889161       -0.8950022890
 H         -4.8049606545        2.0943353346       -1.3323787429
 H         -3.4957896514        2.6720056527       -2.3737439642
 H         -1.9295242664        2.1512725909       -0.6157317500
 H         -4.1828968875        0.9455479057        0.8379196814
 H         -3.4328484390        2.4835866203        1.3074811397
 H         -2.5594121579        0.4166651275        2.5269807457
 H         -1.3158177679        1.4201778151        1.7851836399
 H         -1.0906215013       -1.1306440076        1.4247646566
 H         -3.5942416123       -1.8185531041        2.0088029246
 H         -5.5069832221       -2.9947488604        1.0183728394
 H         -5.7839315452       -3.0737604816       -1.4320337565
 H         -4.1070310429       -2.0008548529       -2.8899105205
 H         -2.1602508599       -0.8767833608       -1.9114053432
 H          0.6489139479       -0.1567818882        2.0996675723
 H          3.0711949739        0.0337972348        2.2437566576
 H          3.3238423056        0.5854732007       -1.9868563785
 H          0.8678278596        0.3743308058       -2.1480878934
 H         -2.7888507736        0.7913545710       -1.0203180854

