#opt

Fluoxetine_6

1 1
 C         -2.3853053158        4.4992085948       -0.0714808132
 N         -2.7532913914        3.1241338060       -0.4429161075
 C         -3.6391292289        2.4332463867        0.5308545604
 C         -3.6395675153        0.9352080737        0.2449431159
 C         -2.2859980687        0.2678141769        0.5465674493
 C         -2.3808056686       -1.2136752018        0.2536721086
 C         -2.1800855961       -1.6879542143       -1.0351280506
 C         -2.2876497140       -3.0417194245       -1.3003986615
 C         -2.6074486228       -3.9248276560       -0.2835678181
 C         -2.8162857847       -3.4535559779        1.0021661681
 C         -2.7011560693       -2.1019522868        1.2723836636
 O         -1.3076055183        0.9344237295       -0.2655660925
 C          0.0259276555        0.6002731089       -0.1468047532
 C          0.8890094047        1.3078984246       -0.9813430453
 C          2.2459811882        1.0683674092       -0.9366451615
 C          2.7458519868        0.1195264258       -0.0531682575
 C          1.8888702313       -0.5842195614        0.7776718533
 C          0.5255863807       -0.3476795725        0.7332262433
 C          4.2327884052       -0.1043331269        0.0186347909
 F          4.8273832901        0.8240905328        0.7918113378
 F          4.5525729537       -1.2949603518        0.5340834209
 F          4.8152340415       -0.0244233198       -1.1847357197
 H         -1.7535006357        4.9403468503       -0.8393456399
 H         -1.8391600602        4.4942363071        0.8696426979
 H         -3.2783926204        5.1114610193        0.0437535949
 H         -1.9110893121        2.4897006239       -0.5080406770
 H         -4.6479793904        2.8447485952        0.4657369059
 H         -3.2513345836        2.6229722611        1.5341668442
 H         -3.9008071525        0.7468354440       -0.7982326584
 H         -4.3937756983        0.4513178869        0.8645365450
 H         -2.0333875187        0.4253810245        1.6053830035
 H         -1.9250152467       -1.0010874456       -1.8293473252
 H         -2.1228980496       -3.4045639899       -2.3028195803
 H         -2.6920984152       -4.9797127557       -0.4915546286
 H         -3.0644605464       -4.1387208738        1.7974545780
 H         -2.8576871858       -1.7357913080        2.2772513656
 H          0.4887099595        2.0343375495       -1.6720857059
 H          2.9160513978        1.6091154312       -1.5861289895
 H          2.2810924389       -1.3234077341        1.4580577230
 H         -0.1257155241       -0.9174505862        1.3741308398
 H         -3.2031795929        3.1232357114       -1.3640499417

