#opt

Fluoxetine_19

1 1
 C         -1.8020140142        3.0941864714       -1.1435253457
 N         -2.5132374420        1.8049306696       -1.1026914169
 C         -3.2969225280        1.5755306947        0.1445959161
 C         -2.4008508471        0.9806410484        1.2259462174
 C         -1.7968540186       -0.3682052283        0.7738330099
 C         -2.8873368044       -1.3347542097        0.3518689106
 C         -3.6968746736       -1.8921177076        1.3354313226
 C         -4.7135962083       -2.7638335935        0.9912884101
 C         -4.9284990466       -3.0919390097       -0.3375599049
 C         -4.1189684374       -2.5483596069       -1.3190244023
 C         -3.1045217063       -1.6689133460       -0.9780503280
 O         -0.9033124679       -0.1499749446       -0.3239907718
 C          0.4489037292        0.0260401244       -0.1093665319
 C          1.2367113658       -0.0379303713       -1.2573555353
 C          2.5997782221        0.1511751708       -1.1749060611
 C          3.1823607756        0.4064451544        0.0606840628
 C          2.4013310133        0.4749567535        1.2030936495
 C          1.0314338302        0.2888943951        1.1222025311
 C          4.6639379337        0.6611830431        0.1464346839
 F          5.3543899971       -0.0253622762       -0.7695633013
 F          4.9400545660        1.9641077622       -0.0612771447
 F          5.1704570259        0.3500050323        1.3435672115
 H         -1.2181142461        3.1709967097       -2.0582266516
 H         -1.1263852520        3.1745237892       -0.2950826502
 H         -2.5114241726        3.9194072808       -1.1084252130
 H         -1.8082424978        1.0152944665       -1.1172812314
 H         -4.1011109212        0.8705819477       -0.0762004176
 H         -3.7363360302        2.5180576384        0.4757963709
 H         -3.0001613918        0.8168604480        2.1202561664
 H         -1.5983174753        1.6738211243        1.4838734985
 H         -1.2495509637       -0.8182199489        1.6082558697
 H         -3.5224264002       -1.6533030115        2.3740781896
 H         -5.3322921410       -3.1945456788        1.7625498454
 H         -5.7164243608       -3.7778849430       -0.6049083838
 H         -4.2705642789       -2.8113341298       -2.3544144953
 H         -2.4601714701       -1.2749303621       -1.7502157460
 H          0.7693662263       -0.2541256862       -2.2050307180
 H          3.2123231983        0.0914788406       -2.0604872749
 H          2.8592471429        0.6719142151        2.1596596401
 H          0.4490987449        0.3490907758        2.0276376257
 H         -3.1233705414        1.7295091835       -1.9204207030

