#opt

Fluoxetine_52

1 1
 C         -2.7842640950        2.3985654619       -2.1932209188
 N         -2.7420083752        1.4661152379       -1.0563897343
 C         -2.2054952641        2.0532714398        0.1966441964
 C         -2.2178130880        1.0187914199        1.3214768513
 C         -1.7330136993       -0.3798646616        0.8409351271
 C         -2.9124234109       -1.2475540462        0.4258677709
 C         -3.8467060084       -1.6064922095        1.3923021951
 C         -4.9349431138       -2.3913172891        1.0573324732
 C         -5.1000685038       -2.8336682258       -0.2454204746
 C         -4.1638144510       -2.4980158099       -1.2069764273
 C         -3.0748043087       -1.7079347768       -0.8751284406
 O         -0.8477133960       -0.2518983684       -0.2667226498
 C          0.4981672701       -0.0393189463       -0.0714537346
 C          1.2717775451       -0.0760961572       -1.2301886089
 C          2.6314841435        0.1465958365       -1.1675339336
 C          3.2243790456        0.4124172322        0.0593778603
 C          2.4585297463        0.4463112055        1.2151171599
 C          1.0937529845        0.2268842175        1.1537860863
 C          4.7038713786        0.6666720233        0.1717127344
 F          4.9539683499        1.8340857172        0.7902541512
 F          5.3195857487       -0.2835688346        0.8912996656
 F          5.3150205675        0.7183037425       -1.0151283949
 H         -1.7843379392        2.7762219626       -2.3981827757
 H         -3.4369339035        3.2402303553       -1.9677099064
 H         -3.1580528600        1.8922290313       -3.0805236699
 H         -2.1055704222        0.6609902123       -1.2520350035
 H         -2.7987973737        2.9251188118        0.4773685229
 H         -1.1834276937        2.3814814352       -0.0065701401
 H         -3.2240281826        0.9132885651        1.7273855109
 H         -1.5797630742        1.3940010453        2.1211891922
 H         -1.2260361436       -0.8918616760        1.6661306440
 H         -3.7117737545       -1.2869913774        2.4151569310
 H         -5.6480478288       -2.6675085282        1.8177548838
 H         -5.9448860685       -3.4514982415       -0.5044863421
 H         -4.2710180036       -2.8584203647       -2.2181844813
 H         -2.3286367712       -1.4947165118       -1.6271366068
 H          0.7969037472       -0.2962929037       -2.1732687091
 H          3.2294337574        0.1128332735       -2.0642319283
 H          2.9276729381        0.6497997437        2.1650046716
 H          0.5240888465        0.2610796590        2.0679977260
 H         -3.6758282083        1.0772338869       -0.8782591832

