#opt

Fluoxetine_47

1 1
 C         -4.8438590776        1.6866669317       -0.5296098484
 N         -3.5129993846        1.4755061952       -1.1256765383
 C         -2.3867074565        2.0674549674       -0.3510768087
 C         -2.0776571473        1.2976514994        0.9284031434
 C         -1.6059435904       -0.1500865640        0.6340060700
 C         -2.7776446143       -1.0225061714        0.2201492986
 C         -3.7308861542       -1.3841225461        1.1663435644
 C         -4.8221816506       -2.1520072625        0.7994803986
 C         -4.9765173447       -2.5660029783       -0.5150826912
 C         -4.0274312589       -2.2217250487       -1.4612547121
 C         -2.9326966233       -1.4462792601       -1.1013537932
 O         -0.6492888999       -0.1452917986       -0.4062429865
 C          0.6853108123       -0.0008212306       -0.1285295777
 C          1.5317382490       -0.1688488807       -1.2245608049
 C          2.8952202781       -0.0297925424       -1.0824869293
 C          3.4267798284        0.2755345164        0.1646754959
 C          2.5911791853        0.4455290062        1.2569650324
 C          1.2209375228        0.3113835201        1.1143730353
 C          4.9090637950        0.4715169917        0.3278049037
 F          5.6222188345       -0.1960127220       -0.5856507748
 F          5.2471102237        1.7703852205        0.2032501355
 F          5.3469597358        0.0816645724        1.5319156497
 H         -5.6121159092        1.2785792643       -1.1826390526
 H         -5.0291948564        2.7496929959       -0.3863934557
 H         -4.9055559253        1.1800202206        0.4304122966
 H         -3.5049081420        1.8697318267       -2.0710958560
 H         -2.6286676183        3.1058700914       -0.1168361695
 H         -1.4988088752        2.0476223834       -0.9872558607
 H         -2.9334019316        1.2724375943        1.6012651103
 H         -1.2754532253        1.8383227548        1.4323836632
 H         -1.1802511529       -0.5759209112        1.5507468020
 H         -3.6042402843       -1.0866915765        2.1968232520
 H         -5.5463489074       -2.4409460241        1.5446028969
 H         -5.8216979189       -3.1747897194       -0.7933551138
 H         -4.1243746983       -2.5673342316       -2.4786581748
 H         -2.1531264466       -1.2425501216       -1.8219050949
 H          1.1009995232       -0.4158487941       -2.1815131718
 H          3.5474616900       -0.1651804989       -1.9306117265
 H          3.0086601500        0.6818903016        2.2232082278
 H          0.6003777581        0.4512084438        1.9851176165
 H         -3.3327975264        0.4359396966       -1.1907406732

