#opt

Fluoxetine_17

1 1
 C         -2.5533717512        4.5469716589       -0.3779877759
 N         -2.8932326117        3.1396284508       -0.6340884281
 C         -3.7041090126        2.4900187794        0.4285949229
 C         -3.6610235366        0.9767550830        0.2436839456
 C         -2.2559285048        0.4001699674        0.4633014509
 C         -2.2404451585       -1.1018975452        0.3096954870
 C         -2.5201023564       -1.6787865878       -0.9233947628
 C         -2.4829644836       -3.0529622539       -1.0734130733
 C         -2.1685272125       -3.8602608498        0.0069903435
 C         -1.8854244106       -3.2898591530        1.2361981004
 C         -1.9158769422       -1.9144954193        1.3868294385
 O         -1.3740872513        1.0227486742       -0.5043851817
 C         -0.0279786199        0.6908848674       -0.3431022695
 C          0.5593774922       -0.1980674337       -1.2300663864
 C          1.9003190423       -0.5098626863       -1.0972784021
 C          2.6404337069        0.0710961734       -0.0783116866
 C          2.0518062467        0.9613289990        0.8104922290
 C          0.7124910920        1.2728882222        0.6774934646
 C          4.0979453731       -0.2657062143        0.1072345087
 F          4.2871439297       -1.0370422809        1.1909945826
 F          4.6173167658       -0.9214574998       -0.9331719870
 F          4.8412371138        0.8360471051        0.2900158015
 H         -3.4590325453        5.1426088524       -0.2728854256
 H         -1.9627723154        4.9456470338       -1.1999515235
 H         -1.9738210001        4.6269978491        0.5393840971
 H         -2.0330325606        2.5187346333       -0.7065823216
 H         -4.7297931653        2.8615749768        0.3908011488
 H         -3.2739839441        2.7612209882        1.3952950762
 H         -4.0079966643        0.7082069889       -0.7550487970
 H         -4.3303759443        0.5061138475        0.9630569593
 H         -1.9058771966        0.6628269897        1.4718957043
 H         -2.7545367704       -1.0518523052       -1.7720188656
 H         -2.7000889990       -3.4934943365       -2.0341898879
 H         -2.1411747045       -4.9321062802       -0.1104589851
 H         -1.6357261067       -3.9144788199        2.0793716775
 H         -1.6886043505       -1.4724670693        2.3461511470
 H         -0.0326604530       -0.6413544813       -2.0141233356
 H          2.3672435695       -1.2012562561       -1.7807522217
 H          2.6409292566        1.4076313524        1.5964500548
 H          0.2506987908        1.9652667166        1.3659266533
 H         -3.3875225606        3.0620290004       -1.5283528132

